<?xml version="1.0" encoding="UTF-8"?>

<!-- generated on 2026-03-22T16:12:20.580508+08:00 by Eclipse SUMO netedit v1_26_0+0224-d26b767e896
-->

<additional xmlns:xsi="http://www.w3.org/2001/XMLSchema-instance" xsi:noNamespaceSchemaLocation="http://sumo.dlr.de/xsd/additional_file.xsd">
    <!-- Detectors -->
    <laneAreaDetector id="g1Enter_1" lanes="-E0_0 -E0.78_0" pos="16.20" endPos="7.51" period="300.00" file="g1Enter.xml"/>
    <laneAreaDetector id="g1Enter_2" lanes="-E0_1 -E0.78_1" pos="16.01" endPos="7.32" period="300.00" file="e2_0.xml"/>
    <laneAreaDetector id="g2Enter_1" lanes="97366431#5_1 97366431#6_1" pos="6.45" endPos="30.14" period="300.00" file="e2_0.xml"/>
    <laneAreaDetector id="g2Enter_2" lanes="97366431#5_0 97366431#6_0" pos="6.37" endPos="30.06" period="300.00" file="e2_0.xml"/>
    <laneAreaDetector id="g3Enter_1" lanes="97366432#2_1 97366432#3_1" pos="21.63" endPos="21.78" period="300.00" file="e2_0.xml"/>
    <laneAreaDetector id="g3Enter_2" lanes="97366432#2_0 97366432#3_0" pos="21.58" endPos="21.79" period="300.00" file="e2_0.xml"/>
    <!-- VariableSpeedSigns -->
</additional>
