<?xml version="1.0" encoding="UTF-8"?>

<!-- generated on 2026-03-22T19:22:26.653513+08:00 by Eclipse SUMO netedit v1_26_0+0224-d26b767e896
<neteditConfiguration xmlns:xsi="http://www.w3.org/2001/XMLSchema-instance" xsi:noNamespaceSchemaLocation="http://sumo.dlr.de/xsd/neteditConfiguration.xsd">

    <input>
        <additional-files value="C:\Users\illie&apos;sBF\Documents\SUMO\Ateneo de Cebu\3-20-2026\ateneo.add.xml"/>
        <route-files value="C:\Users\illie&apos;sBF\Documents\SUMO\Ateneo de Cebu\3-20-2026\ateneo.rou.xml"/>
        <sumo-net-file value="C:\Users\illie&apos;sBF\Documents\SUMO\Ateneo de Cebu\3-20-2026\ateneo.net.xml"/>
    </input>

    <output>
        <output-file value="C:\Users\illie&apos;sBF\Documents\SUMO\Ateneo de Cebu\3-20-2026\ateneo.net.xml"/>
    </output>

    <processing>
        <geometry.min-radius.fix.railways value="false"/>
        <geometry.avoid-overlap value="false"/>
        <geometry.max-grade.fix value="false"/>
        <offset.disable-normalization value="true"/>
        <lefthand value="0"/>
    </processing>

    <junctions>
        <no-turnarounds value="true"/>
        <junctions.corner-detail value="5"/>
        <junctions.limit-turn-speed value="5.50"/>
        <rectangular-lane-cut value="0"/>
    </junctions>

    <pedestrian>
        <walkingareas value="0"/>
    </pedestrian>

</neteditConfiguration>
-->

<net version="1.20" junctionCornerDetail="5" limitTurnSpeed="5.50" avoidOverlap="0" xmlns:xsi="http://www.w3.org/2001/XMLSchema-instance" xsi:noNamespaceSchemaLocation="http://sumo.dlr.de/xsd/net_file.xsd">

    <location netOffset="0.00,0.00" convBoundary="601282.05,1144848.59,601728.76,1146351.77" origBoundary="123.924136,10.355338,123.930211,10.370853" projParameter="+proj=utm +zone=51 +ellps=WGS84 +datum=WGS84 +units=m +no_defs"/>

    <type id="highway.residential" priority="3" numLanes="1" speed="13.89" disallow="tram rail_urban rail rail_electric rail_fast ship container cable_car subway aircraft wheelchair scooter drone" oneway="0"/>
    <type id="highway.secondary" priority="11" numLanes="1" speed="27.78" disallow="tram rail_urban rail rail_electric rail_fast ship container cable_car subway aircraft wheelchair scooter drone" oneway="0"/>
    <type id="highway.service" priority="1" numLanes="1" speed="5.56" allow="pedestrian delivery bicycle" oneway="0"/>

    <edge id=":1127745515_0" function="internal">
        <lane id=":1127745515_0_0" index="0" speed="2.78" length="8.60" shape="601515.46,1146172.68 601513.74,1146170.90 601512.23,1146170.02 601510.45,1146169.65 601507.91,1146169.36"/>
        <lane id=":1127745515_0_1" index="1" speed="2.78" length="10.66" shape="601517.92,1146170.62 601515.68,1146168.88 601513.56,1146168.77 601511.11,1146169.27 601507.91,1146169.36"/>
    </edge>
    <edge id=":1127745515_2" function="internal">
        <lane id=":1127745515_2_0" index="0" speed="2.78" length="10.90" shape="601518.86,1146156.65 601519.21,1146159.72 601519.75,1146161.92 601520.83,1146163.95 601522.82,1146166.51"/>
        <lane id=":1127745515_2_1" index="1" speed="2.78" length="12.44" shape="601518.86,1146156.65 601518.76,1146159.96 601518.35,1146162.75 601518.57,1146165.46 601520.37,1146168.57"/>
    </edge>
    <edge id=":1127745515_4" function="internal">
        <lane id=":1127745515_4_0" index="0" speed="2.78" length="20.25" shape="601518.86,1146156.65 601518.71,1146162.78 601516.84,1146166.95 601513.24,1146169.14 601507.91,1146169.36"/>
    </edge>
    <edge id=":1127745516_0" function="internal">
        <lane id=":1127745516_0_0" index="0" speed="2.78" length="6.51" shape="601507.71,1146169.34 601501.31,1146168.14"/>
    </edge>
    <edge id=":1127745517_0" function="internal">
        <lane id=":1127745517_0_0" index="0" speed="2.78" length="6.52" shape="601495.84,1146162.77 601496.99,1146161.74 601497.87,1146160.46 601498.48,1146158.95 601498.81,1146157.19"/>
    </edge>
    <edge id=":1127745518_0" function="internal">
        <lane id=":1127745518_0_0" index="0" speed="2.78" length="10.26" shape="601502.78,1146144.45 601504.33,1146146.37 601506.28,1146147.81 601508.64,1146148.79 601511.41,1146149.29"/>
        <lane id=":1127745518_0_1" index="1" speed="2.78" length="11.99" shape="601500.07,1146146.14 601501.30,1146147.18 601503.60,1146148.05 601506.97,1146148.76 601511.41,1146149.29"/>
    </edge>
    <edge id=":1127745518_2" function="internal">
        <lane id=":1127745518_2_0" index="0" speed="2.78" length="14.49" shape="601499.42,1146155.36 601501.23,1146152.39 601503.83,1146150.39 601507.22,1146149.36 601511.41,1146149.29"/>
    </edge>
    <edge id=":1127745536_0" function="internal">
        <lane id=":1127745536_0_0" index="0" speed="2.78" length="12.19" shape="601556.37,1146174.32 601553.37,1146176.47 601551.30,1146177.92 601549.14,1146179.22 601545.88,1146180.93"/>
        <lane id=":1127745536_0_1" index="1" speed="2.78" length="12.19" shape="601554.51,1146171.71 601551.63,1146173.78 601549.64,1146175.18 601547.56,1146176.43 601544.43,1146178.08"/>
    </edge>
    <edge id=":1127745536_2" function="internal">
        <lane id=":1127745536_2_0" index="0" speed="2.78" length="14.79" shape="601549.03,1146168.63 601550.74,1146172.44 601550.78,1146175.76 601549.16,1146178.59 601545.88,1146180.93"/>
        <lane id=":1127745536_2_1" index="1" speed="2.78" length="9.30" shape="601546.32,1146170.33 601547.41,1146172.74 601547.46,1146174.84 601546.46,1146176.62 601544.43,1146178.08"/>
    </edge>
    <edge id=":1127745540_0" function="internal">
        <lane id=":1127745540_0_0" index="0" speed="2.78" length="14.00" shape="601492.86,1146115.55 601497.13,1146114.77 601500.45,1146115.03 601503.44,1146115.49 601506.74,1146115.25"/>
    </edge>
    <edge id=":1127745540_1" function="internal">
        <lane id=":1127745540_1_0" index="0" speed="2.78" length="13.80" shape="601492.86,1146115.55 601496.14,1146115.07 601499.11,1146115.86 601501.77,1146117.90 601504.11,1146121.21"/>
        <lane id=":1127745540_1_1" index="1" speed="2.78" length="9.36" shape="601493.84,1146118.59 601495.94,1146118.33 601497.89,1146118.93 601499.68,1146120.41 601501.32,1146122.77"/>
    </edge>
    <edge id=":1127745541_0" function="internal">
        <lane id=":1127745541_0_0" index="0" speed="2.78" length="8.87" shape="601483.69,1146114.21 601485.08,1146115.64 601486.88,1146116.40 601489.10,1146116.49 601491.74,1146115.90"/>
        <lane id=":1127745541_0_1" index="1" speed="2.78" length="10.99" shape="601483.69,1146114.21 601485.83,1146116.87 601488.04,1146118.54 601490.34,1146119.24 601492.72,1146118.95"/>
    </edge>
    <edge id=":1127745541_2" function="internal">
        <lane id=":1127745541_2_0" index="0" speed="2.78" length="12.60" shape="601483.69,1146114.21 601490.57,1146124.82"/>
        <lane id=":1127745541_2_1" index="1" speed="2.78" length="12.60" shape="601481.03,1146115.98 601487.85,1146126.51"/>
    </edge>
    <edge id=":1127745545_0" function="internal">
        <lane id=":1127745545_0_0" index="0" speed="2.78" length="11.53" shape="601444.05,1146058.31 601446.08,1146060.63 601448.21,1146061.96 601450.43,1146063.41 601452.75,1146066.11"/>
        <lane id=":1127745545_0_1" index="1" speed="2.78" length="11.53" shape="601444.05,1146058.31 601450.05,1146067.83"/>
    </edge>
    <edge id=":1127745545_2" function="internal">
        <lane id=":1127745545_2_0" index="0" speed="2.78" length="6.63" shape="601437.56,1146064.72 601439.68,1146063.41 601441.01,1146062.19 601441.57,1146061.05 601441.34,1146060.01"/>
    </edge>
    <edge id=":1127745545_3" function="internal">
        <lane id=":1127745545_3_0" index="0" speed="2.78" length="16.99" shape="601437.56,1146064.72 601442.50,1146062.65 601446.68,1146062.19 601450.09,1146063.35 601452.75,1146066.11"/>
        <lane id=":1127745545_3_1" index="1" speed="2.78" length="12.14" shape="601439.08,1146067.53 601442.77,1146065.93 601445.83,1146065.44 601448.26,1146066.08 601450.05,1146067.83"/>
    </edge>
    <edge id=":1127745546_0" function="internal">
        <lane id=":1127745546_0_0" index="0" speed="2.78" length="7.37" shape="601373.43,1146095.31 601374.51,1146096.50 601375.96,1146096.97 601377.79,1146096.74 601380.00,1146095.80"/>
        <lane id=":1127745546_0_1" index="1" speed="2.78" length="12.41" shape="601370.66,1146096.91 601372.58,1146099.18 601375.03,1146100.22 601378.01,1146100.03 601381.52,1146098.61"/>
    </edge>
    <edge id=":1127745546_2" function="internal">
        <lane id=":1127745546_2_0" index="0" speed="2.78" length="14.63" shape="601367.31,1146103.60 601370.80,1146100.88 601373.35,1146099.25 601376.06,1146097.84 601380.00,1146095.80"/>
        <lane id=":1127745546_2_1" index="1" speed="2.78" length="14.63" shape="601369.35,1146106.07 601372.69,1146103.47 601375.14,1146101.91 601377.74,1146100.57 601381.52,1146098.61"/>
    </edge>
    <edge id=":1127745550_0" function="internal">
        <lane id=":1127745550_0_0" index="0" speed="2.78" length="12.98" shape="601348.22,1146251.38 601348.48,1146247.82 601348.84,1146245.21 601348.52,1146242.87 601346.74,1146240.07"/>
        <lane id=":1127745550_0_1" index="1" speed="2.78" length="12.98" shape="601351.42,1146251.34 601351.65,1146247.12 601351.91,1146244.06 601351.36,1146241.30 601349.17,1146237.99"/>
    </edge>
    <edge id=":1127745550_2" function="internal">
        <lane id=":1127745550_2_0" index="0" speed="2.78" length="12.96" shape="601355.19,1146249.91 601346.74,1146240.07"/>
        <lane id=":1127745550_2_1" index="1" speed="2.78" length="12.96" shape="601357.62,1146247.82 601349.17,1146237.99"/>
    </edge>
    <edge id=":1127745551_0" function="internal">
        <lane id=":1127745551_0_0" index="0" speed="2.78" length="9.15" shape="601374.26,1146262.84 601372.35,1146264.51 601371.26,1146265.88 601370.35,1146267.42 601368.97,1146269.60"/>
        <lane id=":1127745551_0_1" index="1" speed="2.78" length="9.15" shape="601372.29,1146260.31 601370.15,1146262.16 601368.91,1146263.67 601367.88,1146265.37 601366.34,1146267.79"/>
    </edge>
    <edge id=":1127745551_2" function="internal">
        <lane id=":1127745551_2_0" index="0" speed="2.78" length="6.86" shape="601372.29,1146260.31 601371.15,1146261.25 601369.36,1146262.64 601367.61,1146263.77 601366.59,1146263.90"/>
        <lane id=":1127745551_2_1" index="1" speed="2.78" length="3.77" shape="601372.29,1146260.31 601371.56,1146260.96 601370.66,1146261.71 601369.81,1146262.20 601369.19,1146262.04"/>
    </edge>
    <edge id=":1127745556_0" function="internal">
        <lane id=":1127745556_0_0" index="0" speed="2.78" length="6.51" shape="601441.23,1146059.84 601440.46,1146059.26 601439.21,1146059.25 601437.48,1146059.79 601435.26,1146060.90"/>
    </edge>
    <edge id=":1127745556_1" function="internal">
        <lane id=":1127745556_1_0" index="0" speed="2.78" length="10.75" shape="601441.23,1146059.84 601435.49,1146050.75"/>
    </edge>
    <edge id=":1127745556_2" function="internal">
        <lane id=":1127745556_2_0" index="0" speed="2.78" length="10.81" shape="601438.18,1146049.00 601443.94,1146058.14"/>
    </edge>
    <edge id=":1127745556_3" function="internal">
        <lane id=":1127745556_3_0" index="0" speed="2.78" length="11.59" shape="601438.18,1146049.00 601439.07,1146051.38 601438.62,1146053.69 601436.83,1146055.93 601433.69,1146058.11"/>
    </edge>
    <edge id=":1127745557_0" function="internal">
        <lane id=":1127745557_0_0" index="0" speed="2.78" length="1.71" shape="601375.01,1146094.82 601373.33,1146095.14"/>
        <lane id=":1127745557_0_1" index="1" speed="2.78" length="6.15" shape="601373.44,1146092.03 601371.68,1146093.22 601370.61,1146094.40 601370.24,1146095.57 601370.56,1146096.73"/>
    </edge>
    <edge id=":12488396377_0" function="internal">
        <lane id=":12488396377_0_0" index="0" speed="2.78" length="12.99" shape="601347.43,1146279.56 601349.13,1146276.33 601349.32,1146273.74 601348.83,1146270.94 601348.44,1146267.06"/>
        <lane id=":12488396377_0_1" index="1" speed="2.78" length="13.62" shape="601347.43,1146279.56 601349.71,1146276.25 601351.00,1146273.74 601351.56,1146271.01 601351.64,1146267.02"/>
    </edge>
    <edge id=":12488396377_2" function="internal">
        <lane id=":12488396377_2_0" index="0" speed="2.78" length="13.91" shape="601347.43,1146279.56 601355.43,1146268.19"/>
        <lane id=":12488396377_2_1" index="1" speed="2.78" length="13.91" shape="601350.05,1146281.41 601358.05,1146270.03"/>
    </edge>
    <edge id=":12488396378_0" function="internal">
        <lane id=":12488396378_0_0" index="0" speed="2.78" length="15.97" shape="601454.97,1146183.57 601459.50,1146183.53 601462.75,1146183.77 601465.76,1146183.33 601469.55,1146181.28"/>
        <lane id=":12488396378_0_1" index="1" speed="2.78" length="15.97" shape="601455.26,1146186.75 601460.28,1146186.66 601463.87,1146186.82 601467.20,1146186.23 601471.40,1146183.89"/>
    </edge>
    <edge id=":12488396378_2" function="internal">
        <lane id=":12488396378_2_0" index="0" speed="2.78" length="15.85" shape="601456.58,1146190.38 601469.55,1146181.28"/>
        <lane id=":12488396378_2_1" index="1" speed="2.78" length="15.85" shape="601458.42,1146193.01 601471.40,1146183.89"/>
    </edge>
    <edge id=":12488396381_0" function="internal">
        <lane id=":12488396381_0_0" index="0" speed="2.78" length="5.16" shape="601420.45,1146202.13 601424.64,1146198.99"/>
        <lane id=":12488396381_0_1" index="1" speed="2.78" length="5.16" shape="601422.40,1146204.66 601426.47,1146201.62"/>
    </edge>
    <edge id=":12488396384_0" function="internal">
        <lane id=":12488396384_0_0" index="0" speed="2.78" length="16.38" shape="601390.04,1146237.20 601393.56,1146234.10 601395.20,1146231.25 601396.30,1146227.92 601398.22,1146223.42"/>
        <lane id=":12488396384_0_1" index="1" speed="2.78" length="16.79" shape="601390.04,1146237.20 601394.07,1146234.31 601396.65,1146232.02 601398.67,1146229.25 601401.06,1146224.90"/>
    </edge>
    <edge id=":12488396384_2" function="internal">
        <lane id=":12488396384_2_0" index="0" speed="2.78" length="16.99" shape="601390.04,1146237.20 601403.93,1146227.42"/>
        <lane id=":12488396384_2_1" index="1" speed="2.78" length="16.99" shape="601391.88,1146239.82 601405.77,1146230.03"/>
    </edge>
    <edge id=":12488396387_0" function="internal">
        <lane id=":12488396387_0_0" index="0" speed="2.89" length="7.04" shape="601562.03,1146177.25 601560.54,1146175.27 601559.13,1146174.10 601557.79,1146173.74 601556.53,1146174.20"/>
    </edge>
    <edge id=":12488396387_1" function="internal">
        <lane id=":12488396387_1_0" index="0" speed="2.89" length="11.94" shape="601564.56,1146165.12 601562.69,1146166.64 601562.10,1146168.88 601562.78,1146171.84 601564.73,1146175.53"/>
    </edge>
    <edge id=":12488396387_2" function="internal">
        <lane id=":12488396387_2_0" index="0" speed="2.78" length="12.07" shape="601564.56,1146165.12 601562.08,1146166.93 601560.69,1146169.13 601559.23,1146171.60 601556.53,1146174.20"/>
        <lane id=":12488396387_2_1" index="1" speed="2.78" length="12.07" shape="601564.56,1146165.12 601561.78,1146166.53 601559.72,1146167.86 601557.61,1146169.43 601554.68,1146171.60"/>
    </edge>
    <edge id=":5917186732_0" function="internal">
        <lane id=":5917186732_0_0" index="0" speed="2.78" length="12.02" shape="601366.47,1146263.74 601364.41,1146260.88 601362.95,1146258.96 601361.40,1146257.11 601359.10,1146254.44"/>
        <lane id=":5917186732_0_1" index="1" speed="2.78" length="12.02" shape="601369.08,1146261.88 601366.96,1146258.95 601365.46,1146256.99 601363.88,1146255.09 601361.52,1146252.35"/>
    </edge>
    <edge id=":5917186732_2" function="internal">
        <lane id=":5917186732_2_0" index="0" speed="2.78" length="2.05" shape="601369.08,1146261.88 601368.33,1146260.29 601368.34,1146260.00"/>
    </edge>
    <edge id=":5917186732_6" function="internal">
        <lane id=":5917186732_6_0" index="0" speed="2.78" length="5.36" shape="601368.34,1146260.00 601368.37,1146258.69 601369.18,1146257.09 601370.78,1146255.49"/>
    </edge>
    <edge id=":5917186732_3" function="internal">
        <lane id=":5917186732_3_0" index="0" speed="2.78" length="9.75" shape="601358.79,1146263.41 601360.16,1146260.92 601360.67,1146258.60 601360.32,1146256.44 601359.10,1146254.44"/>
    </edge>
    <edge id=":5917186732_4" function="internal">
        <lane id=":5917186732_4_0" index="0" speed="2.78" length="14.25" shape="601358.79,1146263.41 601361.31,1146259.93 601363.23,1146257.69 601365.43,1146255.71 601368.77,1146253.00"/>
        <lane id=":5917186732_4_1" index="1" speed="2.78" length="14.25" shape="601361.19,1146265.56 601363.62,1146262.20 601365.46,1146260.03 601367.56,1146258.11 601370.78,1146255.49"/>
    </edge>
    <edge id=":5917186749_0" function="internal">
        <lane id=":5917186749_0_0" index="0" speed="2.78" length="4.66" shape="601512.17,1146149.58 601513.43,1146150.16 601514.28,1146150.58 601515.05,1146151.13 601516.06,1146152.06"/>
    </edge>
    <edge id=":6261319084_0" function="internal">
        <lane id=":6261319084_0_0" index="0" speed="2.78" length="4.96" shape="601438.17,1146217.10 601434.13,1146219.94"/>
        <lane id=":6261319084_0_1" index="1" speed="2.78" length="4.96" shape="601436.36,1146214.47 601432.28,1146217.33"/>
    </edge>
    <edge id=":6261319085_0" function="internal">
        <lane id=":6261319085_0_0" index="0" speed="2.78" length="5.36" shape="601427.24,1146210.94 601431.63,1146207.85"/>
        <lane id=":6261319085_0_1" index="1" speed="2.78" length="5.36" shape="601429.09,1146213.55 601433.46,1146210.47"/>
    </edge>
    <edge id=":8386388700_0" function="internal">
        <lane id=":8386388700_0_0" index="0" disallow="tram rail_urban rail rail_electric rail_fast ship container cable_car subway aircraft wheelchair scooter drone" speed="13.89" length="20.56" shape="601316.39,1146343.73 601300.24,1146331.10"/>
        <lane id=":8386388700_0_1" index="1" disallow="tram rail_urban rail rail_electric rail_fast ship container cable_car subway aircraft wheelchair scooter drone" speed="13.89" length="20.56" shape="601318.41,1146341.25 601302.16,1146328.54"/>
    </edge>
    <edge id=":8386388700_2" function="internal">
        <lane id=":8386388700_2_0" index="0" disallow="tram rail_urban rail rail_electric rail_fast ship container cable_car subway aircraft wheelchair scooter drone" speed="9.03" length="4.68" shape="601318.41,1146341.25 601315.21,1146337.84"/>
    </edge>
    <edge id=":8386388700_8" function="internal">
        <lane id=":8386388700_8_0" index="0" disallow="tram rail_urban rail rail_electric rail_fast ship container cable_car subway aircraft wheelchair scooter drone" speed="9.03" length="15.81" shape="601315.21,1146337.84 601314.50,1146337.09 601313.09,1146332.82 601314.21,1146328.44 601317.83,1146323.96"/>
    </edge>
    <edge id=":8386388700_3" function="internal">
        <lane id=":8386388700_3_0" index="0" disallow="tram rail_urban rail rail_electric rail_fast ship container cable_car subway aircraft wheelchair scooter drone" speed="6.21" length="9.05" shape="601322.19,1146328.65 601320.59,1146330.63 601320.10,1146332.56 601320.72,1146334.45 601322.45,1146336.29"/>
    </edge>
    <edge id=":8386388700_4" function="internal">
        <lane id=":8386388700_4_0" index="0" disallow="tram rail_urban rail rail_electric rail_fast ship container cable_car subway aircraft wheelchair scooter drone" speed="10.03" length="19.77" shape="601320.01,1146326.30 601315.41,1146329.68 601310.90,1146331.18 601306.48,1146330.80 601302.16,1146328.54"/>
    </edge>
    <edge id=":8386388700_5" function="internal">
        <lane id=":8386388700_5_0" index="0" disallow="tram rail_urban rail rail_electric rail_fast ship container cable_car subway aircraft wheelchair scooter drone" speed="7.54" length="10.76" shape="601306.00,1146323.42 601308.20,1146324.51 601310.55,1146324.57 601313.03,1146323.60 601315.65,1146321.61"/>
    </edge>
    <edge id=":8386388700_6" function="internal">
        <lane id=":8386388700_6_0" index="0" disallow="tram rail_urban rail rail_electric rail_fast ship container cable_car subway aircraft wheelchair scooter drone" speed="13.89" length="20.83" shape="601306.00,1146323.42 601322.45,1146336.29"/>
        <lane id=":8386388700_6_1" index="1" disallow="tram rail_urban rail rail_electric rail_fast ship container cable_car subway aircraft wheelchair scooter drone" speed="13.89" length="20.83" shape="601304.08,1146325.98 601320.43,1146338.77"/>
    </edge>
    <edge id=":J0_0" function="internal">
        <lane id=":J0_0_0" index="0" speed="2.78" length="0.10" shape="601346.10,1146121.74 601346.11,1146121.74"/>
        <lane id=":J0_0_1" index="1" speed="2.78" length="0.10" shape="601348.23,1146124.13 601348.24,1146124.13"/>
    </edge>
    <edge id=":J1_0" function="internal">
        <lane id=":J1_0_0" index="0" speed="2.89" length="17.04" shape="601465.30,1146215.59 601460.74,1146211.23 601456.85,1146208.55 601453.63,1146207.55 601451.08,1146208.23"/>
    </edge>
    <edge id=":J1_1" function="internal">
        <lane id=":J1_1_0" index="0" speed="3.00" length="14.98" shape="601465.30,1146215.59 601462.86,1146212.14 601462.22,1146208.87 601463.36,1146205.78 601466.29,1146202.87"/>
    </edge>
    <edge id=":J1_2" function="internal">
        <lane id=":J1_2_0" index="0" speed="3.00" length="9.06" shape="601468.33,1146205.71 601466.53,1146207.49 601465.82,1146209.36 601466.18,1146211.33 601467.63,1146213.40"/>
    </edge>
    <edge id=":J1_3" function="internal">
        <lane id=":J1_3_0" index="0" speed="2.89" length="19.70" shape="601468.33,1146205.71 601464.76,1146206.19 601460.24,1146204.74 601454.99,1146203.75 601449.27,1146205.59"/>
    </edge>
    <edge id=":J1_4" function="internal">
        <lane id=":J1_4_0" index="0" speed="2.89" length="4.39" shape="601463.72,1146199.31 601466.29,1146202.87"/>
    </edge>
    <edge id=":J1_5" function="internal">
        <lane id=":J1_5_0" index="0" speed="2.89" length="16.51" shape="601463.72,1146199.31 601461.88,1146201.70 601461.91,1146204.84 601463.83,1146208.74 601467.63,1146213.40"/>
    </edge>
    <edge id=":J1_6" function="internal">
        <lane id=":J1_6_0" index="0" speed="2.78" length="15.44" shape="601463.72,1146199.31 601451.08,1146208.23"/>
        <lane id=":J1_6_1" index="1" speed="2.78" length="15.44" shape="601461.85,1146196.71 601449.27,1146205.59"/>
    </edge>
    <edge id=":J2_0" function="internal">
        <lane id=":J2_0_0" index="0" speed="3.00" length="14.58" shape="601517.73,1146193.65 601506.53,1146202.98"/>
    </edge>
    <edge id=":J2_1" function="internal">
        <lane id=":J2_1_0" index="0" speed="3.00" length="4.03" shape="601517.73,1146193.65 601514.24,1146195.65"/>
    </edge>
    <edge id=":J2_6" function="internal">
        <lane id=":J2_6_0" index="0" speed="3.00" length="10.32" shape="601514.24,1146195.65 601510.99,1146196.10 601507.98,1146195.00 601505.21,1146192.34"/>
    </edge>
    <edge id=":J2_2" function="internal">
        <lane id=":J2_2_0" index="0" speed="3.00" length="9.02" shape="601507.74,1146190.39 601509.49,1146192.07 601511.38,1146192.77 601513.42,1146192.49 601515.61,1146191.24"/>
    </edge>
    <edge id=":J2_3" function="internal">
        <lane id=":J2_3_0" index="0" speed="3.00" length="14.33" shape="601507.74,1146190.39 601509.72,1146193.84 601510.18,1146197.09 601509.12,1146200.14 601506.53,1146202.98"/>
    </edge>
    <edge id=":J2_4" function="internal">
        <lane id=":J2_4_0" index="0" speed="3.00" length="9.29" shape="601504.50,1146200.51 601506.16,1146198.68 601506.83,1146196.71 601506.51,1146194.60 601505.21,1146192.34"/>
    </edge>
    <edge id=":J2_5" function="internal">
        <lane id=":J2_5_0" index="0" speed="3.00" length="14.46" shape="601504.50,1146200.51 601515.61,1146191.24"/>
    </edge>
    <edge id=":J3_0" function="internal">
        <lane id=":J3_0_0" index="0" speed="3.00" length="14.87" shape="601501.02,1146207.51 601498.11,1146209.84 601495.16,1146212.08 601492.16,1146214.25 601489.09,1146216.37"/>
    </edge>
    <edge id=":J3_1" function="internal">
        <lane id=":J3_1_0" index="0" speed="3.00" length="4.13" shape="601501.02,1146207.51 601497.67,1146209.52 601497.45,1146209.55"/>
    </edge>
    <edge id=":J3_6" function="internal">
        <lane id=":J3_6_0" index="0" speed="3.00" length="10.31" shape="601497.45,1146209.55 601494.47,1146209.95 601491.40,1146208.78 601488.46,1146206.03"/>
    </edge>
    <edge id=":J3_2" function="internal">
        <lane id=":J3_2_0" index="0" speed="3.00" length="9.25" shape="601490.95,1146204.02 601492.84,1146205.80 601494.81,1146206.57 601496.86,1146206.31 601498.99,1146205.04"/>
    </edge>
    <edge id=":J3_3" function="internal">
        <lane id=":J3_3_0" index="0" speed="3.00" length="14.54" shape="601490.95,1146204.02 601493.02,1146207.49 601493.39,1146210.70 601492.08,1146213.66 601489.09,1146216.37"/>
    </edge>
    <edge id=":J3_4" function="internal">
        <lane id=":J3_4_0" index="0" speed="3.00" length="9.04" shape="601487.30,1146213.71 601489.17,1146212.03 601489.98,1146210.19 601489.75,1146208.19 601488.46,1146206.03"/>
    </edge>
    <edge id=":J3_5" function="internal">
        <lane id=":J3_5_0" index="0" speed="3.00" length="14.56" shape="601487.30,1146213.71 601490.34,1146211.62 601493.25,1146209.52 601496.12,1146207.34 601498.99,1146205.04"/>
    </edge>
    <edge id=":J5_0" function="internal">
        <lane id=":J5_0_0" index="0" speed="2.78" length="0.30" shape="601595.83,1146260.56 601595.65,1146260.33"/>
        <lane id=":J5_0_1" index="1" speed="2.78" length="0.30" shape="601598.35,1146258.59 601598.17,1146258.35"/>
    </edge>
    <edge id=":J6_0" function="internal">
        <lane id=":J6_0_0" index="0" speed="3.00" length="9.18" shape="601484.35,1146200.95 601482.50,1146199.21 601480.55,1146198.43 601478.48,1146198.63 601476.31,1146199.79"/>
    </edge>
    <edge id=":J6_1" function="internal">
        <lane id=":J6_1_0" index="0" speed="3.00" length="14.26" shape="601484.35,1146200.95 601482.35,1146197.58 601481.92,1146194.40 601483.06,1146191.40 601485.77,1146188.57"/>
    </edge>
    <edge id=":J6_2" function="internal">
        <lane id=":J6_2_0" index="0" speed="3.00" length="9.03" shape="601487.74,1146191.10 601486.02,1146192.88 601485.30,1146194.79 601485.57,1146196.80 601486.84,1146198.94"/>
    </edge>
    <edge id=":J6_3" function="internal">
        <lane id=":J6_3_0" index="0" speed="3.00" length="14.36" shape="601487.74,1146191.10 601476.31,1146199.79"/>
    </edge>
    <edge id=":J6_4" function="internal">
        <lane id=":J6_4_0" index="0" speed="3.00" length="14.28" shape="601474.30,1146197.08 601485.77,1146188.57"/>
    </edge>
    <edge id=":J6_5" function="internal">
        <lane id=":J6_5_0" index="0" speed="3.00" length="4.10" shape="601474.30,1146197.08 601477.73,1146195.34 601477.98,1146195.32"/>
    </edge>
    <edge id=":J6_6" function="internal">
        <lane id=":J6_6_0" index="0" speed="3.00" length="10.15" shape="601477.98,1146195.32 601480.96,1146195.07 601484.00,1146196.27 601486.84,1146198.94"/>
    </edge>
    <edge id=":cluster1127745523_5917186547_0" function="internal">
        <lane id=":cluster1127745523_5917186547_0_0" index="0" speed="2.78" length="15.12" shape="601584.26,1146248.78 601580.76,1146245.96 601577.91,1146244.55 601575.15,1146243.05 601571.92,1146239.98"/>
        <lane id=":cluster1127745523_5917186547_0_1" index="1" speed="2.78" length="15.12" shape="601586.51,1146246.50 601583.07,1146243.75 601580.26,1146242.38 601577.55,1146240.93 601574.37,1146237.92"/>
    </edge>
    <edge id=":cluster1127745523_5917186547_2" function="internal">
        <lane id=":cluster1127745523_5917186547_2_0" index="0" speed="2.89" length="4.91" shape="601586.51,1146246.50 601584.63,1146243.42 601584.59,1146242.12"/>
    </edge>
    <edge id=":cluster1127745523_5917186547_8" function="internal">
        <lane id=":cluster1127745523_5917186547_8_0" index="0" speed="2.89" length="13.11" shape="601584.59,1146242.12 601584.51,1146239.71 601586.16,1146235.36 601589.57,1146230.37"/>
    </edge>
    <edge id=":cluster1127745523_5917186547_3" function="internal">
        <lane id=":cluster1127745523_5917186547_3_0" index="0" speed="2.89" length="9.02" shape="601592.06,1146232.39 601590.80,1146234.48 601590.45,1146236.52 601591.02,1146238.51 601592.50,1146240.46"/>
    </edge>
    <edge id=":cluster1127745523_5917186547_4" function="internal">
        <lane id=":cluster1127745523_5917186547_4_0" index="0" speed="2.89" length="21.59" shape="601592.06,1146232.39 601586.84,1146237.81 601582.15,1146240.54 601578.00,1146240.58 601574.37,1146237.92"/>
    </edge>
    <edge id=":cluster1127745523_5917186547_5" function="internal">
        <lane id=":cluster1127745523_5917186547_5_0" index="0" speed="2.89" length="12.60" shape="601579.28,1146233.81 601581.35,1146235.30 601583.76,1146235.23 601586.50,1146233.58 601589.57,1146230.37"/>
    </edge>
    <edge id=":cluster1127745523_5917186547_6" function="internal">
        <lane id=":cluster1127745523_5917186547_6_0" index="0" speed="2.78" length="15.24" shape="601579.28,1146233.81 601582.61,1146236.51 601585.70,1146237.31 601588.88,1146238.02 601592.50,1146240.46"/>
        <lane id=":cluster1127745523_5917186547_6_1" index="1" speed="2.78" length="15.24" shape="601576.83,1146235.87 601580.21,1146238.63 601583.34,1146239.48 601586.57,1146240.23 601590.25,1146242.73"/>
    </edge>